Circuit: * C:\Users\Kouhei\Documents\GitHub\hattori\Stim_simulation\LTspice\Draft1.asc

.OP point found by inspection.

Date: Fri Aug 07 17:27:12 2020
Total elapsed time: 0.029 seconds.

tnom = 27
temp = 27
method = trap
totiter = 2000
traniter = 0
tranpoints = 0
accept = 0
rejected = 0
matrix size = 4
fillins = 0
solver = Normal
Matrix Compiler1: off  [0.0]/0.0/0.0
Matrix Compiler2: off  [0.0]/0.3/0.0

