Circuit: * C:\Users\Kouhei\Documents\GitHub\hattori\Stim_simulation\LTspice\Draft2.asc

Direct Newton iteration for .op point succeeded.

Date: Wed Feb 10 15:37:31 2021
Total elapsed time: 0.023 seconds.

tnom = 27
temp = 27
method = modified trap
totiter = 2085
traniter = 2082
tranpoints = 1042
accept = 1042
rejected = 0
matrix size = 1
fillins = 0
solver = Normal
Matrix Compiler1: off  0.0/[0.0]/0.0
Matrix Compiler2:       4 opcodes  0.0/[0.0]/0.0

