Circuit: * C:\Users\6969p\Documents\GitHub\hattori\Stim_simulation\LTspice\step_voltage.asc

.OP point found by inspection.

Date: Fri Jul 03 13:22:09 2020
Total elapsed time: 2.926 seconds.

tnom = 27
temp = 27
method = modified trap
totiter = 1000114
traniter = 1000114
tranpoints = 500058
accept = 500054
rejected = 4
matrix size = 3
fillins = 0
solver = Normal
Matrix Compiler1: 86 bytes object code size  0.0/0.0/[0.0]
Matrix Compiler2: off  [0.0]/0.1/0.0

